[root]
type=Root
children=system
eventq_index=0
full_system=true
sim_quantum=0
time_sync_enable=false
time_sync_period=100000000000
time_sync_spin_threshold=100000000

[system]
type=ArmSystem
children=bigCluster clk_domain disk_images dvfs_handler etherlink ethernet iobridge iobus iocache littleCluster mem_ctrls membus pci_vio_block realview release terminal vncserver voltage_domain workload
auto_reset_addr=true
cache_line_size=64
eventq_index=0
exit_on_work_items=false
gic_cpu_addr=738205696
have_large_asid_64=false
highest_el_is_64=true
init_param=0
m5ops_base=268500992
mem_mode=timing
mem_ranges=2147483648:4294967296
memories=system.mem_ctrls system.realview.bootmem system.realview.flash0 system.realview.flash1 system.realview.non_trusted_sram system.realview.trusted_dram system.realview.trusted_sram system.realview.vram
mmap_using_noreserve=false
multi_proc=true
multi_thread=false
num_work_ids=16
phys_addr_range_64=40
readfile=/home/red-sea/COSSIM/cgem5/configs/boot/standAloneScript0.rcS
redirect_paths=
release=system.release
reset_addr=0
semihosting=Null
shadow_rom_ranges=
shared_backstore=
sve_vl=1
symbolfile=
thermal_components=
thermal_model=Null
work_begin_ckpt_count=0
work_begin_cpu_id_exit=-1
work_begin_exit_count=0
work_cpus_ckpt_count=0
work_end_ckpt_count=0
work_end_exit_count=0
work_item_id=-1
workload=system.workload
system_port=system.membus.cpu_side_ports[1]

[system.bigCluster]
type=SubSystem
children=clk_domain cpus l2 toL2Bus voltage_domain
eventq_index=0
thermal_domain=Null

[system.bigCluster.clk_domain]
type=SrcClockDomain
clock=500
domain_id=-1
eventq_index=0
init_perf_level=0
voltage_domain=system.bigCluster.voltage_domain

[system.bigCluster.cpus]
type=O3CPU
children=branchPred dcache decoder fuPool icache interrupts isa mmu power_state tracer
LFSTSize=1024
LQEntries=16
LSQCheckLoads=true
LSQDepCheckShift=0
SQEntries=16
SSITSize=1024
activity=0
backComSize=5
branchPred=system.bigCluster.cpus.branchPred
cacheLoadPorts=200
cacheStorePorts=200
checker=Null
clk_domain=system.bigCluster.clk_domain
commitToDecodeDelay=1
commitToFetchDelay=1
commitToIEWDelay=1
commitToRenameDelay=1
commitWidth=8
cpu_id=0
decodeToFetchDelay=1
decodeToRenameDelay=2
decodeWidth=3
decoder=system.bigCluster.cpus.decoder
dispatchWidth=6
do_checkpoint_insts=true
do_statistics_insts=true
eventq_index=0
fetchBufferSize=16
fetchQueueSize=32
fetchToDecodeDelay=3
fetchTrapLatency=1
fetchWidth=3
forwardComSize=5
fuPool=system.bigCluster.cpus.fuPool
function_trace=false
function_trace_start=0
iewToCommitDelay=1
iewToDecodeDelay=1
iewToFetchDelay=1
iewToRenameDelay=1
interrupts=system.bigCluster.cpus.interrupts
isa=system.bigCluster.cpus.isa
issueToExecuteDelay=1
issueWidth=8
max_insts_all_threads=0
max_insts_any_thread=0
mmu=system.bigCluster.cpus.mmu
needsTSO=false
numIQEntries=32
numPhysCCRegs=640
numPhysFloatRegs=192
numPhysIntRegs=128
numPhysVecPredRegs=32
numPhysVecRegs=48
numROBEntries=40
numRobs=1
numThreads=1
power_gating_on_idle=false
power_model=
power_state=system.bigCluster.cpus.power_state
progress_interval=0
pwr_gating_latency=300
renameToDecodeDelay=1
renameToFetchDelay=1
renameToIEWDelay=1
renameToROBDelay=1
renameWidth=3
simpoint_start_insts=
smtCommitPolicy=RoundRobin
smtFetchPolicy=RoundRobin
smtIQPolicy=Partitioned
smtIQThreshold=100
smtLSQPolicy=Partitioned
smtLSQThreshold=100
smtNumFetchingThreads=1
smtROBPolicy=Partitioned
smtROBThreshold=100
socket_id=0
squashWidth=8
store_set_clear_period=250000
switched_out=false
syscallRetryLatency=10000
system=system
tracer=system.bigCluster.cpus.tracer
trapLatency=13
wbWidth=8
workload=
dcache_port=system.bigCluster.cpus.dcache.cpu_side
icache_port=system.bigCluster.cpus.icache.cpu_side

[system.bigCluster.cpus.branchPred]
type=BiModeBP
children=indirectBranchPred
BTBEntries=2048
BTBTagSize=18
RASSize=16
choiceCtrBits=2
choicePredictorSize=8192
eventq_index=0
globalCtrBits=2
globalPredictorSize=8192
indirectBranchPred=system.bigCluster.cpus.branchPred.indirectBranchPred
instShiftAmt=2
numThreads=1

[system.bigCluster.cpus.branchPred.indirectBranchPred]
type=SimpleIndirectPredictor
eventq_index=0
indirectGHRBits=13
indirectHashGHR=true
indirectHashTargets=true
indirectPathLength=3
indirectSets=256
indirectTagSize=16
indirectWays=2
instShiftAmt=2
numThreads=1

[system.bigCluster.cpus.dcache]
type=Cache
children=power_state replacement_policy tags
addr_ranges=0:18446744073709551615
assoc=2
clk_domain=system.bigCluster.clk_domain
clusivity=mostly_incl
compressor=Null
data_latency=2
demand_mshr_reserve=1
eventq_index=0
is_read_only=false
max_miss_count=0
move_contractions=true
mshrs=16
power_model=
power_state=system.bigCluster.cpus.dcache.power_state
prefetch_on_access=false
prefetch_on_pf_hit=false
prefetcher=Null
replace_expansions=true
replacement_policy=system.bigCluster.cpus.dcache.replacement_policy
response_latency=1
sequential_access=false
size=32768
system=system
tag_latency=2
tags=system.bigCluster.cpus.dcache.tags
tgts_per_mshr=16
warmup_percentage=0
write_allocator=Null
write_buffers=16
writeback_clean=false
cpu_side=system.bigCluster.cpus.dcache_port
mem_side=system.bigCluster.toL2Bus.cpu_side_ports[1]

[system.bigCluster.cpus.dcache.power_state]
type=PowerState
clk_gate_bins=20
clk_gate_max=1000000000000
clk_gate_min=1000
default_state=UNDEFINED
eventq_index=0
leaders=
possible_states=

[system.bigCluster.cpus.dcache.replacement_policy]
type=LRURP
eventq_index=0

[system.bigCluster.cpus.dcache.tags]
type=BaseSetAssoc
children=indexing_policy power_state
assoc=2
block_size=64
clk_domain=system.bigCluster.clk_domain
entry_size=64
eventq_index=0
indexing_policy=system.bigCluster.cpus.dcache.tags.indexing_policy
power_model=
power_state=system.bigCluster.cpus.dcache.tags.power_state
replacement_policy=system.bigCluster.cpus.dcache.replacement_policy
sequential_access=false
size=32768
system=system
tag_latency=2
warmup_percentage=0

[system.bigCluster.cpus.dcache.tags.indexing_policy]
type=SetAssociative
assoc=2
entry_size=64
eventq_index=0
size=32768

[system.bigCluster.cpus.dcache.tags.power_state]
type=PowerState
clk_gate_bins=20
clk_gate_max=1000000000000
clk_gate_min=1000
default_state=UNDEFINED
eventq_index=0
leaders=
possible_states=

[system.bigCluster.cpus.decoder]
type=ArmDecoder
eventq_index=0
isa=system.bigCluster.cpus.isa

[system.bigCluster.cpus.fuPool]
type=FUPool
children=FUList0 FUList1 FUList2 FUList3 FUList4
FUList=system.bigCluster.cpus.fuPool.FUList0 system.bigCluster.cpus.fuPool.FUList1 system.bigCluster.cpus.fuPool.FUList2 system.bigCluster.cpus.fuPool.FUList3 system.bigCluster.cpus.fuPool.FUList4
eventq_index=0

[system.bigCluster.cpus.fuPool.FUList0]
type=FUDesc
children=opList
count=2
eventq_index=0
opList=system.bigCluster.cpus.fuPool.FUList0.opList

[system.bigCluster.cpus.fuPool.FUList0.opList]
type=OpDesc
eventq_index=0
opClass=IntAlu
opLat=1
pipelined=true

[system.bigCluster.cpus.fuPool.FUList1]
type=FUDesc
children=opList0 opList1 opList2
count=1
eventq_index=0
opList=system.bigCluster.cpus.fuPool.FUList1.opList0 system.bigCluster.cpus.fuPool.FUList1.opList1 system.bigCluster.cpus.fuPool.FUList1.opList2

[system.bigCluster.cpus.fuPool.FUList1.opList0]
type=OpDesc
eventq_index=0
opClass=IntMult
opLat=3
pipelined=true

[system.bigCluster.cpus.fuPool.FUList1.opList1]
type=OpDesc
eventq_index=0
opClass=IntDiv
opLat=12
pipelined=false

[system.bigCluster.cpus.fuPool.FUList1.opList2]
type=OpDesc
eventq_index=0
opClass=IprAccess
opLat=3
pipelined=true

[system.bigCluster.cpus.fuPool.FUList2]
type=FUDesc
children=opList0 opList1
count=1
eventq_index=0
opList=system.bigCluster.cpus.fuPool.FUList2.opList0 system.bigCluster.cpus.fuPool.FUList2.opList1

[system.bigCluster.cpus.fuPool.FUList2.opList0]
type=OpDesc
eventq_index=0
opClass=MemRead
opLat=2
pipelined=true

[system.bigCluster.cpus.fuPool.FUList2.opList1]
type=OpDesc
eventq_index=0
opClass=FloatMemRead
opLat=2
pipelined=true

[system.bigCluster.cpus.fuPool.FUList3]
type=FUDesc
children=opList0 opList1
count=1
eventq_index=0
opList=system.bigCluster.cpus.fuPool.FUList3.opList0 system.bigCluster.cpus.fuPool.FUList3.opList1

[system.bigCluster.cpus.fuPool.FUList3.opList0]
type=OpDesc
eventq_index=0
opClass=MemWrite
opLat=2
pipelined=true

[system.bigCluster.cpus.fuPool.FUList3.opList1]
type=OpDesc
eventq_index=0
opClass=FloatMemWrite
opLat=2
pipelined=true

[system.bigCluster.cpus.fuPool.FUList4]
type=FUDesc
children=opList00 opList01 opList02 opList03 opList04 opList05 opList06 opList07 opList08 opList09 opList10 opList11 opList12 opList13 opList14 opList15 opList16 opList17 opList18 opList19 opList20 opList21 opList22 opList23 opList24 opList25 opList26 opList27
count=2
eventq_index=0
opList=system.bigCluster.cpus.fuPool.FUList4.opList00 system.bigCluster.cpus.fuPool.FUList4.opList01 system.bigCluster.cpus.fuPool.FUList4.opList02 system.bigCluster.cpus.fuPool.FUList4.opList03 system.bigCluster.cpus.fuPool.FUList4.opList04 system.bigCluster.cpus.fuPool.FUList4.opList05 system.bigCluster.cpus.fuPool.FUList4.opList06 system.bigCluster.cpus.fuPool.FUList4.opList07 system.bigCluster.cpus.fuPool.FUList4.opList08 system.bigCluster.cpus.fuPool.FUList4.opList09 system.bigCluster.cpus.fuPool.FUList4.opList10 system.bigCluster.cpus.fuPool.FUList4.opList11 system.bigCluster.cpus.fuPool.FUList4.opList12 system.bigCluster.cpus.fuPool.FUList4.opList13 system.bigCluster.cpus.fuPool.FUList4.opList14 system.bigCluster.cpus.fuPool.FUList4.opList15 system.bigCluster.cpus.fuPool.FUList4.opList16 system.bigCluster.cpus.fuPool.FUList4.opList17 system.bigCluster.cpus.fuPool.FUList4.opList18 system.bigCluster.cpus.fuPool.FUList4.opList19 system.bigCluster.cpus.fuPool.FUList4.opList20 system.bigCluster.cpus.fuPool.FUList4.opList21 system.bigCluster.cpus.fuPool.FUList4.opList22 system.bigCluster.cpus.fuPool.FUList4.opList23 system.bigCluster.cpus.fuPool.FUList4.opList24 system.bigCluster.cpus.fuPool.FUList4.opList25 system.bigCluster.cpus.fuPool.FUList4.opList26 system.bigCluster.cpus.fuPool.FUList4.opList27

[system.bigCluster.cpus.fuPool.FUList4.opList00]
type=OpDesc
eventq_index=0
opClass=SimdAdd
opLat=4
pipelined=true

[system.bigCluster.cpus.fuPool.FUList4.opList01]
type=OpDesc
eventq_index=0
opClass=SimdAddAcc
opLat=4
pipelined=true

[system.bigCluster.cpus.fuPool.FUList4.opList02]
type=OpDesc
eventq_index=0
opClass=SimdAlu
opLat=4
pipelined=true

[system.bigCluster.cpus.fuPool.FUList4.opList03]
type=OpDesc
eventq_index=0
opClass=SimdCmp
opLat=4
pipelined=true

[system.bigCluster.cpus.fuPool.FUList4.opList04]
type=OpDesc
eventq_index=0
opClass=SimdCvt
opLat=3
pipelined=true

[system.bigCluster.cpus.fuPool.FUList4.opList05]
type=OpDesc
eventq_index=0
opClass=SimdMisc
opLat=3
pipelined=true

[system.bigCluster.cpus.fuPool.FUList4.opList06]
type=OpDesc
eventq_index=0
opClass=SimdMult
opLat=5
pipelined=true

[system.bigCluster.cpus.fuPool.FUList4.opList07]
type=OpDesc
eventq_index=0
opClass=SimdMultAcc
opLat=5
pipelined=true

[system.bigCluster.cpus.fuPool.FUList4.opList08]
type=OpDesc
eventq_index=0
opClass=SimdShift
opLat=3
pipelined=true

[system.bigCluster.cpus.fuPool.FUList4.opList09]
type=OpDesc
eventq_index=0
opClass=SimdShiftAcc
opLat=3
pipelined=true

[system.bigCluster.cpus.fuPool.FUList4.opList10]
type=OpDesc
eventq_index=0
opClass=SimdSqrt
opLat=9
pipelined=true

[system.bigCluster.cpus.fuPool.FUList4.opList11]
type=OpDesc
eventq_index=0
opClass=SimdFloatAdd
opLat=5
pipelined=true

[system.bigCluster.cpus.fuPool.FUList4.opList12]
type=OpDesc
eventq_index=0
opClass=SimdFloatAlu
opLat=5
pipelined=true

[system.bigCluster.cpus.fuPool.FUList4.opList13]
type=OpDesc
eventq_index=0
opClass=SimdFloatCmp
opLat=3
pipelined=true

[system.bigCluster.cpus.fuPool.FUList4.opList14]
type=OpDesc
eventq_index=0
opClass=SimdFloatCvt
opLat=3
pipelined=true

[system.bigCluster.cpus.fuPool.FUList4.opList15]
type=OpDesc
eventq_index=0
opClass=SimdFloatDiv
opLat=3
pipelined=true

[system.bigCluster.cpus.fuPool.FUList4.opList16]
type=OpDesc
eventq_index=0
opClass=SimdFloatMisc
opLat=3
pipelined=true

[system.bigCluster.cpus.fuPool.FUList4.opList17]
type=OpDesc
eventq_index=0
opClass=SimdFloatMult
opLat=3
pipelined=true

[system.bigCluster.cpus.fuPool.FUList4.opList18]
type=OpDesc
eventq_index=0
opClass=SimdFloatMultAcc
opLat=5
pipelined=true

[system.bigCluster.cpus.fuPool.FUList4.opList19]
type=OpDesc
eventq_index=0
opClass=SimdFloatSqrt
opLat=9
pipelined=true

[system.bigCluster.cpus.fuPool.FUList4.opList20]
type=OpDesc
eventq_index=0
opClass=FloatAdd
opLat=5
pipelined=true

[system.bigCluster.cpus.fuPool.FUList4.opList21]
type=OpDesc
eventq_index=0
opClass=FloatCmp
opLat=5
pipelined=true

[system.bigCluster.cpus.fuPool.FUList4.opList22]
type=OpDesc
eventq_index=0
opClass=FloatCvt
opLat=5
pipelined=true

[system.bigCluster.cpus.fuPool.FUList4.opList23]
type=OpDesc
eventq_index=0
opClass=FloatDiv
opLat=9
pipelined=false

[system.bigCluster.cpus.fuPool.FUList4.opList24]
type=OpDesc
eventq_index=0
opClass=FloatSqrt
opLat=33
pipelined=false

[system.bigCluster.cpus.fuPool.FUList4.opList25]
type=OpDesc
eventq_index=0
opClass=FloatMult
opLat=4
pipelined=true

[system.bigCluster.cpus.fuPool.FUList4.opList26]
type=OpDesc
eventq_index=0
opClass=FloatMultAcc
opLat=5
pipelined=true

[system.bigCluster.cpus.fuPool.FUList4.opList27]
type=OpDesc
eventq_index=0
opClass=FloatMisc
opLat=3
pipelined=true

[system.bigCluster.cpus.icache]
type=Cache
children=power_state replacement_policy tags
addr_ranges=0:18446744073709551615
assoc=3
clk_domain=system.bigCluster.clk_domain
clusivity=mostly_incl
compressor=Null
data_latency=1
demand_mshr_reserve=1
eventq_index=0
is_read_only=true
max_miss_count=0
move_contractions=true
mshrs=4
power_model=
power_state=system.bigCluster.cpus.icache.power_state
prefetch_on_access=false
prefetch_on_pf_hit=false
prefetcher=Null
replace_expansions=true
replacement_policy=system.bigCluster.cpus.icache.replacement_policy
response_latency=1
sequential_access=false
size=49152
system=system
tag_latency=1
tags=system.bigCluster.cpus.icache.tags
tgts_per_mshr=8
warmup_percentage=0
write_allocator=Null
write_buffers=8
writeback_clean=true
cpu_side=system.bigCluster.cpus.icache_port
mem_side=system.bigCluster.toL2Bus.cpu_side_ports[0]

[system.bigCluster.cpus.icache.power_state]
type=PowerState
clk_gate_bins=20
clk_gate_max=1000000000000
clk_gate_min=1000
default_state=UNDEFINED
eventq_index=0
leaders=
possible_states=

[system.bigCluster.cpus.icache.replacement_policy]
type=LRURP
eventq_index=0

[system.bigCluster.cpus.icache.tags]
type=BaseSetAssoc
children=indexing_policy power_state
assoc=3
block_size=64
clk_domain=system.bigCluster.clk_domain
entry_size=64
eventq_index=0
indexing_policy=system.bigCluster.cpus.icache.tags.indexing_policy
power_model=
power_state=system.bigCluster.cpus.icache.tags.power_state
replacement_policy=system.bigCluster.cpus.icache.replacement_policy
sequential_access=false
size=49152
system=system
tag_latency=1
warmup_percentage=0

[system.bigCluster.cpus.icache.tags.indexing_policy]
type=SetAssociative
assoc=3
entry_size=64
eventq_index=0
size=49152

[system.bigCluster.cpus.icache.tags.power_state]
type=PowerState
clk_gate_bins=20
clk_gate_max=1000000000000
clk_gate_min=1000
default_state=UNDEFINED
eventq_index=0
leaders=
possible_states=

[system.bigCluster.cpus.interrupts]
type=ArmInterrupts
eventq_index=0

[system.bigCluster.cpus.isa]
type=ArmISA
children=release_se
decoderFlavor=Generic
eventq_index=0
fpsid=1090793632
id_aa64afr0_el1=0
id_aa64afr1_el1=0
id_aa64dfr0_el1=15790086
id_aa64dfr1_el1=0
id_aa64isar0_el1=268435456
id_aa64isar1_el1=16846864
id_aa64mmfr0_el1=15728642
id_aa64mmfr1_el1=1052704
id_aa64mmfr2_el1=65552
id_isar0=34607377
id_isar1=34677009
id_isar2=555950401
id_isar3=17899825
id_isar4=268501314
id_isar5=285212672
id_isar6=1
id_mmfr0=270536963
id_mmfr1=0
id_mmfr2=19070976
id_mmfr3=34611729
id_mmfr4=0
impdef_nop=false
midr=0
pmu=Null
release_se=system.bigCluster.cpus.isa.release_se
sve_vl_se=1
system=system

[system.bigCluster.cpus.isa.release_se]
type=ArmRelease
eventq_index=0
extensions=CRYPTO FEAT_LSE FEAT_RDM FEAT_SVE FEAT_FCMA FEAT_JSCVT FEAT_PAuth TME

[system.bigCluster.cpus.mmu]
type=ArmMMU
children=dtb dtb_walker itb itb_walker l2_shared stage2_dtb stage2_dtb_walker stage2_itb stage2_itb_walker
dtb=system.bigCluster.cpus.mmu.dtb
dtb_walker=system.bigCluster.cpus.mmu.dtb_walker
eventq_index=0
itb=system.bigCluster.cpus.mmu.itb
itb_walker=system.bigCluster.cpus.mmu.itb_walker
release_se=system.bigCluster.cpus.isa.release_se
stage2_dtb=system.bigCluster.cpus.mmu.stage2_dtb
stage2_dtb_walker=system.bigCluster.cpus.mmu.stage2_dtb_walker
stage2_itb=system.bigCluster.cpus.mmu.stage2_itb
stage2_itb_walker=system.bigCluster.cpus.mmu.stage2_itb_walker
sys=system

[system.bigCluster.cpus.mmu.dtb]
type=ArmTLB
entry_type=data
eventq_index=0
is_stage2=false
next_level=system.bigCluster.cpus.mmu.l2_shared
partial_levels=
size=64
sys=system

[system.bigCluster.cpus.mmu.dtb_walker]
type=ArmTableWalker
children=power_state
clk_domain=system.bigCluster.clk_domain
eventq_index=0
is_stage2=false
num_squash_per_cycle=2
power_model=
power_state=system.bigCluster.cpus.mmu.dtb_walker.power_state
sys=system
port=system.bigCluster.toL2Bus.cpu_side_ports[3]

[system.bigCluster.cpus.mmu.dtb_walker.power_state]
type=PowerState
clk_gate_bins=20
clk_gate_max=1000000000000
clk_gate_min=1000
default_state=UNDEFINED
eventq_index=0
leaders=
possible_states=

[system.bigCluster.cpus.mmu.itb]
type=ArmTLB
entry_type=instruction
eventq_index=0
is_stage2=false
next_level=system.bigCluster.cpus.mmu.l2_shared
partial_levels=
size=64
sys=system

[system.bigCluster.cpus.mmu.itb_walker]
type=ArmTableWalker
children=power_state
clk_domain=system.bigCluster.clk_domain
eventq_index=0
is_stage2=false
num_squash_per_cycle=2
power_model=
power_state=system.bigCluster.cpus.mmu.itb_walker.power_state
sys=system
port=system.bigCluster.toL2Bus.cpu_side_ports[2]

[system.bigCluster.cpus.mmu.itb_walker.power_state]
type=PowerState
clk_gate_bins=20
clk_gate_max=1000000000000
clk_gate_min=1000
default_state=UNDEFINED
eventq_index=0
leaders=
possible_states=

[system.bigCluster.cpus.mmu.l2_shared]
type=ArmTLB
entry_type=unified
eventq_index=0
is_stage2=false
next_level=Null
partial_levels=L2
size=1280
sys=system

[system.bigCluster.cpus.mmu.stage2_dtb]
type=ArmTLB
entry_type=data
eventq_index=0
is_stage2=true
next_level=Null
partial_levels=
size=32
sys=system

[system.bigCluster.cpus.mmu.stage2_dtb_walker]
type=ArmTableWalker
children=power_state
clk_domain=system.bigCluster.clk_domain
eventq_index=0
is_stage2=true
num_squash_per_cycle=2
power_model=
power_state=system.bigCluster.cpus.mmu.stage2_dtb_walker.power_state
sys=system
port=system.bigCluster.toL2Bus.cpu_side_ports[5]

[system.bigCluster.cpus.mmu.stage2_dtb_walker.power_state]
type=PowerState
clk_gate_bins=20
clk_gate_max=1000000000000
clk_gate_min=1000
default_state=UNDEFINED
eventq_index=0
leaders=
possible_states=

[system.bigCluster.cpus.mmu.stage2_itb]
type=ArmTLB
entry_type=instruction
eventq_index=0
is_stage2=true
next_level=Null
partial_levels=
size=32
sys=system

[system.bigCluster.cpus.mmu.stage2_itb_walker]
type=ArmTableWalker
children=power_state
clk_domain=system.bigCluster.clk_domain
eventq_index=0
is_stage2=true
num_squash_per_cycle=2
power_model=
power_state=system.bigCluster.cpus.mmu.stage2_itb_walker.power_state
sys=system
port=system.bigCluster.toL2Bus.cpu_side_ports[4]

[system.bigCluster.cpus.mmu.stage2_itb_walker.power_state]
type=PowerState
clk_gate_bins=20
clk_gate_max=1000000000000
clk_gate_min=1000
default_state=UNDEFINED
eventq_index=0
leaders=
possible_states=

[system.bigCluster.cpus.power_state]
type=PowerState
clk_gate_bins=20
clk_gate_max=1000000000000
clk_gate_min=1000
default_state=UNDEFINED
eventq_index=0
leaders=
possible_states=ON CLK_GATED OFF

[system.bigCluster.cpus.tracer]
type=ExeTracer
eventq_index=0

[system.bigCluster.l2]
type=Cache
children=power_state replacement_policy tags
addr_ranges=0:18446744073709551615
assoc=16
clk_domain=system.bigCluster.clk_domain
clusivity=mostly_excl
compressor=Null
data_latency=12
demand_mshr_reserve=1
eventq_index=0
is_read_only=false
max_miss_count=0
move_contractions=true
mshrs=32
power_model=
power_state=system.bigCluster.l2.power_state
prefetch_on_access=false
prefetch_on_pf_hit=false
prefetcher=Null
replace_expansions=true
replacement_policy=system.bigCluster.l2.replacement_policy
response_latency=5
sequential_access=false
size=1048576
system=system
tag_latency=12
tags=system.bigCluster.l2.tags
tgts_per_mshr=8
warmup_percentage=0
write_allocator=Null
write_buffers=8
writeback_clean=false
cpu_side=system.bigCluster.toL2Bus.mem_side_ports[0]
mem_side=system.membus.cpu_side_ports[2]

[system.bigCluster.l2.power_state]
type=PowerState
clk_gate_bins=20
clk_gate_max=1000000000000
clk_gate_min=1000
default_state=UNDEFINED
eventq_index=0
leaders=
possible_states=

[system.bigCluster.l2.replacement_policy]
type=LRURP
eventq_index=0

[system.bigCluster.l2.tags]
type=BaseSetAssoc
children=indexing_policy power_state
assoc=16
block_size=64
clk_domain=system.bigCluster.clk_domain
entry_size=64
eventq_index=0
indexing_policy=system.bigCluster.l2.tags.indexing_policy
power_model=
power_state=system.bigCluster.l2.tags.power_state
replacement_policy=system.bigCluster.l2.replacement_policy
sequential_access=false
size=1048576
system=system
tag_latency=12
warmup_percentage=0

[system.bigCluster.l2.tags.indexing_policy]
type=SetAssociative
assoc=16
entry_size=64
eventq_index=0
size=1048576

[system.bigCluster.l2.tags.power_state]
type=PowerState
clk_gate_bins=20
clk_gate_max=1000000000000
clk_gate_min=1000
default_state=UNDEFINED
eventq_index=0
leaders=
possible_states=

[system.bigCluster.toL2Bus]
type=CoherentXBar
children=power_state snoop_filter
clk_domain=system.bigCluster.clk_domain
eventq_index=0
forward_latency=0
frontend_latency=1
header_latency=1
max_outstanding_snoops=512
max_routing_table_size=512
point_of_coherency=false
point_of_unification=true
power_model=
power_state=system.bigCluster.toL2Bus.power_state
response_latency=1
snoop_filter=system.bigCluster.toL2Bus.snoop_filter
snoop_response_latency=1
system=system
use_default_range=false
width=64
cpu_side_ports=system.bigCluster.cpus.icache.mem_side system.bigCluster.cpus.dcache.mem_side system.bigCluster.cpus.mmu.itb_walker.port system.bigCluster.cpus.mmu.dtb_walker.port system.bigCluster.cpus.mmu.stage2_itb_walker.port system.bigCluster.cpus.mmu.stage2_dtb_walker.port
mem_side_ports=system.bigCluster.l2.cpu_side

[system.bigCluster.toL2Bus.power_state]
type=PowerState
clk_gate_bins=20
clk_gate_max=1000000000000
clk_gate_min=1000
default_state=UNDEFINED
eventq_index=0
leaders=
possible_states=

[system.bigCluster.toL2Bus.snoop_filter]
type=SnoopFilter
eventq_index=0
lookup_latency=0
max_capacity=8388608
system=system

[system.bigCluster.voltage_domain]
type=VoltageDomain
eventq_index=0
voltage=1.0

[system.clk_domain]
type=SrcClockDomain
clock=1000
domain_id=-1
eventq_index=0
init_perf_level=0
voltage_domain=system.voltage_domain

[system.disk_images]
type=CowDiskImage
children=child
child=system.disk_images.child
eventq_index=0
image_file=
read_only=false
table_size=65536

[system.disk_images.child]
type=RawDiskImage
eventq_index=0
image_file=/home/red-sea/COSSIM/kernels/disks/ubuntu-18.04-arm64-docker.img
read_only=true

[system.dvfs_handler]
type=DVFSHandler
domains=
enable=false
eventq_index=0
sys_clk_domain=system.clk_domain
transition_latency=100000000

[system.etherlink]
type=EtherLink
delay=0
delay_var=0
dump=Null
eventq_index=0
speed=8000.000000
int0=system.ethernet.interface

[system.ethernet]
type=IGbE
children=BAR0 BAR1 BAR2 BAR3 BAR4 BAR5 power_state
BAR0=system.ethernet.BAR0
BAR1=system.ethernet.BAR1
BAR2=system.ethernet.BAR2
BAR3=system.ethernet.BAR3
BAR4=system.ethernet.BAR4
BAR5=system.ethernet.BAR5
BIST=0
CacheLineSize=0
CapabilityPtr=0
CardbusCIS=0
ClassCode=2
Command=0
DeviceID=4213
ExpansionROM=0
HeaderType=0
InterruptLine=30
InterruptPin=1
LatencyTimer=0
MSICAPBaseOffset=0
MSICAPCapId=0
MSICAPMaskBits=0
MSICAPMsgAddr=0
MSICAPMsgCtrl=0
MSICAPMsgData=0
MSICAPMsgUpperAddr=0
MSICAPNextCapability=0
MSICAPPendingBits=0
MSIXCAPBaseOffset=0
MSIXCAPCapId=0
MSIXCAPNextCapability=0
MSIXMsgCtrl=0
MSIXPbaOffset=0
MSIXTableOffset=0
MaximumLatency=0
MinimumGrant=255
PMCAPBaseOffset=0
PMCAPCapId=0
PMCAPCapabilities=0
PMCAPCtrlStatus=0
PMCAPNextCapability=0
PXCAPBaseOffset=0
PXCAPCapId=0
PXCAPCapabilities=0
PXCAPDevCap2=0
PXCAPDevCapabilities=0
PXCAPDevCtrl=0
PXCAPDevCtrl2=0
PXCAPDevStatus=0
PXCAPLinkCap=0
PXCAPLinkCtrl=0
PXCAPLinkStatus=0
PXCAPNextCapability=0
ProgIF=0
Revision=0
Status=0
SubClassCode=0
SubsystemID=4104
SubsystemVendorID=32902
VendorID=32902
clk_domain=system.clk_domain
config_latency=20000
eventq_index=0
fetch_comp_delay=10000
fetch_delay=10000
hardware_address=00:90:00:00:00:01
host=system.realview.pci_host
pci_bus=0
pci_dev=2
pci_func=0
phy_epid=896
phy_pid=680
pio_latency=30000
power_model=
power_state=system.ethernet.power_state
rx_desc_cache_size=64
rx_fifo_size=393216
rx_write_delay=0
sid=0
ssid=0
system=system
tx_desc_cache_size=64
tx_fifo_size=393216
tx_read_delay=0
wb_comp_delay=10000
wb_delay=10000
dma=system.iobus.cpu_side_ports[2]
interface=system.etherlink.int0
pio=system.iobus.mem_side_ports[18]

[system.ethernet.BAR0]
type=PciMemBar
eventq_index=0
size=131072

[system.ethernet.BAR1]
type=PciBarNone
eventq_index=0

[system.ethernet.BAR2]
type=PciBarNone
eventq_index=0

[system.ethernet.BAR3]
type=PciBarNone
eventq_index=0

[system.ethernet.BAR4]
type=PciBarNone
eventq_index=0

[system.ethernet.BAR5]
type=PciBarNone
eventq_index=0

[system.ethernet.power_state]
type=PowerState
clk_gate_bins=20
clk_gate_max=1000000000000
clk_gate_min=1000
default_state=UNDEFINED
eventq_index=0
leaders=
possible_states=

[system.iobridge]
type=Bridge
children=power_state
clk_domain=system.clk_domain
delay=50000
eventq_index=0
power_model=
power_state=system.iobridge.power_state
ranges=201326592:536870912 788529152:2147483648
req_size=16
resp_size=16
cpu_side_port=system.membus.mem_side_ports[1]
mem_side_port=system.iobus.cpu_side_ports[0]

[system.iobridge.power_state]
type=PowerState
clk_gate_bins=20
clk_gate_max=1000000000000
clk_gate_min=1000
default_state=UNDEFINED
eventq_index=0
leaders=
possible_states=

[system.iobus]
type=NoncoherentXBar
children=power_state
clk_domain=system.clk_domain
eventq_index=0
forward_latency=1
frontend_latency=2
header_latency=1
power_model=
power_state=system.iobus.power_state
response_latency=2
use_default_range=false
width=16
cpu_side_ports=system.iobridge.mem_side_port system.pci_vio_block.dma system.ethernet.dma
mem_side_ports=system.iocache.cpu_side system.realview.flash1.port system.realview.vram.port system.realview.realview_io.pio system.realview.kmi0.pio system.realview.kmi1.pio system.realview.watchdog.pio system.realview.rtc.pio system.realview.pci_host.pio system.realview.energy_ctrl.pio system.realview.pwr_ctrl.pio system.realview.vio0.pio system.realview.vio1.pio system.realview.uart0.pio system.realview.uart1.pio system.realview.uart2.pio system.realview.uart3.pio system.pci_vio_block.pio system.ethernet.pio

[system.iobus.power_state]
type=PowerState
clk_gate_bins=20
clk_gate_max=1000000000000
clk_gate_min=1000
default_state=UNDEFINED
eventq_index=0
leaders=
possible_states=

[system.iocache]
type=Cache
children=power_state replacement_policy tags
addr_ranges=2147483648:4294967296
assoc=8
clk_domain=system.clk_domain
clusivity=mostly_incl
compressor=Null
data_latency=50
demand_mshr_reserve=1
eventq_index=0
is_read_only=false
max_miss_count=0
move_contractions=true
mshrs=20
power_model=
power_state=system.iocache.power_state
prefetch_on_access=false
prefetch_on_pf_hit=false
prefetcher=Null
replace_expansions=true
replacement_policy=system.iocache.replacement_policy
response_latency=50
sequential_access=false
size=1024
system=system
tag_latency=50
tags=system.iocache.tags
tgts_per_mshr=12
warmup_percentage=0
write_allocator=Null
write_buffers=8
writeback_clean=false
cpu_side=system.iobus.mem_side_ports[0]
mem_side=system.membus.cpu_side_ports[0]

[system.iocache.power_state]
type=PowerState
clk_gate_bins=20
clk_gate_max=1000000000000
clk_gate_min=1000
default_state=UNDEFINED
eventq_index=0
leaders=
possible_states=

[system.iocache.replacement_policy]
type=LRURP
eventq_index=0

[system.iocache.tags]
type=BaseSetAssoc
children=indexing_policy power_state
assoc=8
block_size=64
clk_domain=system.clk_domain
entry_size=64
eventq_index=0
indexing_policy=system.iocache.tags.indexing_policy
power_model=
power_state=system.iocache.tags.power_state
replacement_policy=system.iocache.replacement_policy
sequential_access=false
size=1024
system=system
tag_latency=50
warmup_percentage=0

[system.iocache.tags.indexing_policy]
type=SetAssociative
assoc=8
entry_size=64
eventq_index=0
size=1024

[system.iocache.tags.power_state]
type=PowerState
clk_gate_bins=20
clk_gate_max=1000000000000
clk_gate_min=1000
default_state=UNDEFINED
eventq_index=0
leaders=
possible_states=

[system.littleCluster]
type=SubSystem
children=clk_domain cpus l2 toL2Bus voltage_domain
eventq_index=0
thermal_domain=Null

[system.littleCluster.clk_domain]
type=SrcClockDomain
clock=1000
domain_id=-1
eventq_index=0
init_perf_level=0
voltage_domain=system.littleCluster.voltage_domain

[system.littleCluster.cpus]
type=MinorCPU
children=branchPred dcache decoder executeFuncUnits icache interrupts isa mmu power_state tracer
branchPred=system.littleCluster.cpus.branchPred
checker=Null
clk_domain=system.littleCluster.clk_domain
cpu_id=1
decodeCycleInput=true
decodeInputBufferSize=3
decodeInputWidth=2
decodeToExecuteForwardDelay=1
decoder=system.littleCluster.cpus.decoder
do_checkpoint_insts=true
do_statistics_insts=true
enableIdling=true
eventq_index=0
executeAllowEarlyMemoryIssue=true
executeBranchDelay=1
executeCommitLimit=2
executeCycleInput=true
executeFuncUnits=system.littleCluster.cpus.executeFuncUnits